Version 4
SHEET 1 1260 800
WIRE 16 32 -16 32
WIRE 128 32 96 32
WIRE 160 32 128 32
WIRE -128 64 -128 32
WIRE 128 64 96 64
WIRE 160 64 128 64
WIRE -128 80 -128 64
WIRE 16 80 16 32
WIRE 16 96 16 80
WIRE 128 96 96 96
WIRE 160 96 128 96
WIRE 384 112 288 112
WIRE 128 128 96 128
WIRE 160 128 128 128
WIRE 384 144 288 144
WIRE 16 160 -16 160
WIRE 128 160 96 160
WIRE 160 160 128 160
WIRE -304 176 -336 176
WIRE 320 176 288 176
WIRE 384 176 320 176
WIRE -128 192 -128 160
WIRE 128 192 96 192
WIRE 160 192 128 192
WIRE -128 208 -128 192
WIRE 16 208 16 160
WIRE 384 208 288 208
WIRE -304 224 -304 176
WIRE 128 224 96 224
WIRE 160 224 128 224
WIRE 16 240 16 208
WIRE 384 240 288 240
WIRE 128 256 96 256
WIRE 160 256 128 256
WIRE -128 288 -144 288
WIRE 16 288 -16 288
WIRE 128 288 96 288
WIRE 160 288 128 288
WIRE -128 304 -128 288
WIRE 320 304 288 304
WIRE -128 320 -128 304
WIRE 128 320 96 320
WIRE 160 320 128 320
WIRE 320 336 320 304
WIRE 336 336 320 336
WIRE 16 352 16 288
WIRE 128 352 96 352
WIRE 160 352 128 352
WIRE 16 368 16 352
WIRE 128 384 96 384
WIRE 160 384 128 384
WIRE -112 432 -128 432
WIRE 16 432 0 432
WIRE 16 464 16 432
WIRE -112 480 -112 432
WIRE 16 480 16 464
WIRE 192 480 176 480
WIRE 208 480 192 480
WIRE -112 512 -112 480
WIRE 192 608 160 608
WIRE 208 608 192 608
WIRE 176 736 160 736
WIRE 208 736 176 736
FLAG 288 272 0
FLAG 416 336 0
FLAG -208 32 0
FLAG -208 160 0
FLAG -224 288 0
FLAG -208 432 0
FLAG -96 288 0
FLAG -96 160 0
FLAG -96 32 0
FLAG -80 432 0
FLAG 96 480 0
FLAG 80 608 0
FLAG 80 736 0
FLAG 128 320 S0
FLAG 192 480 S0
FLAG 128 352 S1
FLAG 128 384 S2
FLAG 192 608 S1
FLAG 176 736 S2
FLAG 128 32 A0
FLAG 128 160 B0
FLAG -128 64 A0
FLAG 16 80 B0
FLAG 128 64 A1
FLAG 128 96 A2
FLAG 128 128 A3
FLAG 128 192 B1
FLAG 128 224 B2
FLAG 128 256 B3
FLAG 128 288 C0
FLAG -416 176 0
FLAG -336 176 C0
FLAG -128 192 A1
FLAG -128 304 A2
FLAG -112 480 A3
FLAG 16 208 B1
FLAG 16 352 B2
FLAG 16 464 B3
FLAG 320 176 G1
SYMBOL four_bit_alu 224 208 R0
SYMATTR InstName X1
SYMBOL voltage 320 336 R270
WINDOW 0 32 56 VTop 2
WINDOW 3 -32 56 VBottom 2
WINDOW 123 0 0 Left 2
WINDOW 39 0 0 Left 2
SYMATTR InstName V1
SYMATTR Value 1.8
SYMBOL voltage -112 32 R90
WINDOW 0 -32 56 VBottom 2
WINDOW 3 32 56 VTop 2
WINDOW 123 0 0 Left 2
WINDOW 39 0 0 Left 2
SYMATTR InstName V2
SYMATTR Value 0
SYMBOL voltage -112 160 R90
WINDOW 0 -32 56 VBottom 2
WINDOW 3 32 56 VTop 2
WINDOW 123 0 0 Left 2
WINDOW 39 0 0 Left 2
SYMATTR InstName V3
SYMATTR Value 0
SYMBOL voltage -128 288 R90
WINDOW 0 -32 56 VBottom 2
WINDOW 3 32 56 VTop 2
WINDOW 123 0 0 Left 2
WINDOW 39 0 0 Left 2
SYMATTR InstName V4
SYMATTR Value 1.8
SYMBOL voltage -112 432 R90
WINDOW 0 -32 56 VBottom 2
WINDOW 3 32 56 VTop 2
WINDOW 123 0 0 Left 2
WINDOW 39 0 0 Left 2
SYMATTR InstName V5
SYMATTR Value 1.8
SYMBOL voltage 16 432 R90
WINDOW 0 -32 56 VBottom 2
WINDOW 3 32 56 VTop 2
WINDOW 123 0 0 Left 2
WINDOW 39 0 0 Left 2
SYMATTR InstName V6
SYMATTR Value 1.8
SYMBOL voltage 0 288 R90
WINDOW 0 -32 56 VBottom 2
WINDOW 3 32 56 VTop 2
WINDOW 123 0 0 Left 2
WINDOW 39 0 0 Left 2
SYMATTR InstName V7
SYMATTR Value 0
SYMBOL voltage 0 160 R90
WINDOW 0 -32 56 VBottom 2
WINDOW 3 32 56 VTop 2
WINDOW 123 0 0 Left 2
WINDOW 39 0 0 Left 2
SYMATTR InstName V8
SYMATTR Value 1.8
SYMBOL voltage 0 32 R90
WINDOW 0 -32 56 VBottom 2
WINDOW 3 32 56 VTop 2
WINDOW 123 0 0 Left 2
WINDOW 39 0 0 Left 2
SYMATTR InstName V9
SYMATTR Value 0
SYMBOL voltage 192 480 R90
WINDOW 0 -32 56 VBottom 2
WINDOW 3 32 56 VTop 2
WINDOW 123 0 0 Left 2
WINDOW 39 0 0 Left 2
SYMATTR InstName V10
SYMATTR Value PULSE(0 1.8 0 0 0 0.5m 1m 10)
SYMBOL voltage 176 608 R90
WINDOW 0 -32 56 VBottom 2
WINDOW 3 32 56 VTop 2
WINDOW 123 0 0 Left 2
WINDOW 39 0 0 Left 2
SYMATTR InstName V11
SYMATTR Value PULSE(0 1.8 0 0 0 1m 2m 10)
SYMBOL voltage 176 736 R90
WINDOW 0 -32 56 VBottom 2
WINDOW 3 32 56 VTop 2
WINDOW 123 0 0 Left 2
WINDOW 39 0 0 Left 2
SYMATTR InstName V12
SYMATTR Value PULSE(0 1.8 0 0 0 2m 4m 10)
SYMBOL voltage -320 176 R90
WINDOW 0 -32 56 VBottom 2
WINDOW 3 32 56 VTop 2
WINDOW 123 0 0 Left 2
WINDOW 39 0 0 Left 2
SYMATTR InstName V13
SYMATTR Value 0
TEXT -436 546 Left 2 !.tran 8m
TEXT 392 16 Left 2 !.MEAS TRAN temp1 WHEN V(G1)=0.9 cross=3
