Version 4
SHEET 1 880 704
WIRE 656 64 336 64
WIRE 112 144 -32 144
WIRE 608 144 304 144
WIRE 112 176 -32 176
WIRE 352 176 304 176
WIRE 112 208 48 208
WIRE 336 208 336 64
WIRE 336 208 304 208
WIRE 352 224 352 176
WIRE 400 224 352 224
WIRE 608 224 608 144
WIRE 608 224 592 224
WIRE 688 224 608 224
WIRE 400 256 368 256
WIRE 800 256 592 256
WIRE 400 288 384 288
WIRE 624 288 592 288
WIRE 48 304 48 208
WIRE 48 304 16 304
WIRE 624 320 624 288
WIRE 656 320 656 64
WIRE 656 320 624 320
WIRE 112 336 -32 336
WIRE 336 336 304 336
WIRE 384 352 384 288
WIRE 448 352 384 352
WIRE 112 368 -32 368
WIRE 368 368 368 256
WIRE 368 368 304 368
WIRE 48 400 48 304
WIRE 112 400 48 400
WIRE 432 400 304 400
WIRE 624 400 624 320
WIRE 624 400 432 400
WIRE 336 496 336 336
WIRE 384 496 336 496
WIRE 688 496 688 224
WIRE 688 496 384 496
WIRE 384 560 384 496
WIRE 432 560 432 400
FLAG -32 144 I0
IOPIN -32 144 In
FLAG -32 176 I1
IOPIN -32 176 In
FLAG -32 336 I2
IOPIN -32 336 In
FLAG -32 368 I3
IOPIN -32 368 In
FLAG 16 304 S0
IOPIN 16 304 In
FLAG 448 352 S1
IOPIN 448 352 In
FLAG 432 560 VDC
IOPIN 432 560 BiDir
FLAG 384 560 Ground
IOPIN 384 560 BiDir
FLAG 800 256 Y
IOPIN 800 256 Out
SYMBOL 2X1_MUX 208 176 R0
SYMATTR InstName X1
SYMBOL 2X1_MUX 208 368 R0
SYMATTR InstName X2
SYMBOL 2X1_MUX 496 256 R0
SYMATTR InstName X3
