Version 4
SHEET 1 1012 952
WIRE 32 -48 0 -48
WIRE 672 -48 288 -48
WIRE 896 -48 864 -48
WIRE 32 -16 0 -16
WIRE 288 -16 288 -48
WIRE 288 -16 160 -16
WIRE 672 -16 528 -16
WIRE 896 -16 864 -16
WIRE 528 0 528 -16
WIRE 32 16 -112 16
WIRE 224 16 160 16
WIRE 672 16 624 16
WIRE 896 16 864 16
WIRE 32 48 16 48
WIRE 208 48 160 48
WIRE 32 80 16 80
WIRE 208 80 160 80
WIRE 32 112 16 112
WIRE -112 160 -112 16
WIRE 240 160 -112 160
WIRE 32 208 0 208
WIRE 32 240 0 240
WIRE 240 240 240 160
WIRE 240 240 160 240
WIRE 32 272 -112 272
WIRE 224 272 160 272
WIRE 32 304 0 304
WIRE 208 304 160 304
WIRE 32 336 0 336
WIRE 208 336 160 336
WIRE 32 368 0 368
WIRE -112 416 -112 272
WIRE 240 416 -112 416
WIRE 32 464 0 464
WIRE 32 496 0 496
WIRE 240 496 240 416
WIRE 240 496 160 496
WIRE 32 528 -112 528
WIRE 224 528 160 528
WIRE 32 560 0 560
WIRE 208 560 160 560
WIRE 32 592 0 592
WIRE 208 592 160 592
WIRE 32 624 0 624
WIRE -112 672 -112 528
WIRE 240 672 -112 672
WIRE 32 720 0 720
WIRE 32 752 0 752
WIRE 240 752 240 672
WIRE 240 752 160 752
WIRE 32 784 0 784
WIRE 224 784 160 784
WIRE 32 816 0 816
WIRE 208 816 160 816
WIRE 32 848 0 848
WIRE 208 848 160 848
WIRE 32 880 0 880
FLAG 0 -48 A3
IOPIN 0 -48 In
FLAG 0 208 A2
IOPIN 0 208 In
FLAG 0 464 A1
IOPIN 0 464 In
FLAG 0 720 A0
IOPIN 0 720 In
FLAG 0 496 B1
IOPIN 0 496 In
FLAG 0 752 B0
IOPIN 0 752 In
FLAG 0 -16 B3
IOPIN 0 -16 In
FLAG 0 240 B2
IOPIN 0 240 In
FLAG 0 784 C0
IOPIN 0 784 In
FLAG 16 48 S0
IOPIN 16 48 In
FLAG 0 304 S0
IOPIN 0 304 In
FLAG 0 560 S0
IOPIN 0 560 In
FLAG 0 816 S0
IOPIN 0 816 In
FLAG 16 80 S1
IOPIN 16 80 In
FLAG 0 336 S1
IOPIN 0 336 In
FLAG 0 592 S1
IOPIN 0 592 In
FLAG 0 848 S1
IOPIN 0 848 In
FLAG 16 112 S2
IOPIN 16 112 In
FLAG 0 368 S2
IOPIN 0 368 In
FLAG 0 624 S2
IOPIN 0 624 In
FLAG 0 880 S2
IOPIN 0 880 In
FLAG 208 48 gnd
IOPIN 208 48 BiDir
FLAG 528 0 gnd
IOPIN 528 0 BiDir
FLAG 208 304 gnd
IOPIN 208 304 BiDir
FLAG 208 560 gnd
IOPIN 208 560 BiDir
FLAG 208 848 Vdc
IOPIN 208 848 BiDir
FLAG 208 816 gnd
IOPIN 208 816 BiDir
FLAG 208 592 Vdc
IOPIN 208 592 BiDir
FLAG 208 336 Vdc
IOPIN 208 336 BiDir
FLAG 208 80 Vdc
IOPIN 208 80 BiDir
FLAG 896 16 Vdc
IOPIN 896 16 BiDir
FLAG 896 -48 gnd
IOPIN 896 -48 BiDir
FLAG 624 16 S2
IOPIN 624 16 In
FLAG 224 784 G0
IOPIN 224 784 Out
FLAG 224 528 G1
IOPIN 224 528 Out
FLAG 224 272 G2
IOPIN 224 272 Out
FLAG 224 16 G3
IOPIN 224 16 Out
FLAG 896 -16 Cout
IOPIN 896 -16 Out
SYMBOL onebit_alu 96 32 R0
SYMATTR InstName X1
SYMBOL onebit_alu 96 288 R0
SYMATTR InstName X2
SYMBOL onebit_alu 96 544 R0
SYMATTR InstName X3
SYMBOL onebit_alu 96 800 R0
SYMATTR InstName X4
SYMBOL 2X1_MUX 768 -16 R0
SYMATTR InstName X5
