Version 4
SHEET 1 880 680
WIRE 304 80 224 80
WIRE 80 96 -16 96
WIRE 416 112 224 112
WIRE 80 128 -16 128
WIRE 304 144 224 144
WIRE 320 240 224 240
WIRE 80 256 -16 256
WIRE 304 272 224 272
WIRE 432 272 304 272
WIRE 80 288 -16 288
WIRE 288 304 224 304
WIRE 304 352 304 272
WIRE 304 352 -32 352
WIRE 352 400 256 400
WIRE -32 432 -32 352
WIRE 48 432 -32 432
WIRE 400 432 256 432
WIRE 352 464 256 464
WIRE 304 544 208 544
WIRE 64 560 -16 560
WIRE 432 576 208 576
WIRE 64 592 -16 592
WIRE 304 608 208 608
FLAG 416 112 AND_op
IOPIN 416 112 Out
FLAG 432 272 XOR_op
IOPIN 432 272 Out
FLAG 400 432 XNOR_op
IOPIN 400 432 Out
FLAG 432 576 OR_op
IOPIN 432 576 Out
FLAG -16 96 A
IOPIN -16 96 In
FLAG -16 256 A
IOPIN -16 256 In
FLAG -16 560 A
IOPIN -16 560 In
FLAG -16 128 B
IOPIN -16 128 In
FLAG -16 288 B
IOPIN -16 288 In
FLAG -16 592 B
IOPIN -16 592 In
FLAG 304 144 VDC
IOPIN 304 144 BiDir
FLAG 288 304 VDC
IOPIN 288 304 BiDir
FLAG 352 464 VDC
IOPIN 352 464 BiDir
FLAG 304 608 VDC
IOPIN 304 608 BiDir
FLAG 320 240 Ground
IOPIN 320 240 BiDir
FLAG 352 400 Ground
IOPIN 352 400 BiDir
FLAG 304 544 Ground
IOPIN 304 544 BiDir
FLAG 304 80 Ground
IOPIN 304 80 BiDir
SYMBOL AND_2_Inp 144 112 R0
SYMATTR InstName AND
SYMBOL OR_2_inp 128 576 R0
SYMATTR InstName OR
SYMBOL XOR_2_Inp 144 272 R0
SYMATTR InstName XOR
SYMBOL NOT_Gate 144 432 R0
SYMATTR InstName NOT
