Version 4
SHEET 1 880 680
WIRE 384 48 224 48
WIRE 0 96 -160 96
WIRE 336 144 224 144
WIRE 0 160 0 96
WIRE 80 160 0 160
WIRE 384 176 224 176
WIRE -160 192 -160 176
WIRE 80 192 -96 192
WIRE 384 192 384 176
WIRE 336 208 224 208
WIRE 80 224 0 224
WIRE 336 240 224 240
WIRE 384 272 224 272
WIRE -96 288 -96 272
WIRE 336 304 224 304
WIRE 0 320 0 304
WIRE 336 336 224 336
FLAG 384 192 0
FLAG -160 192 0
FLAG -96 288 0
FLAG 0 320 0
FLAG 384 368 0
SYMBOL lp_full_adder 144 192 R0
SYMATTR InstName X1
SYMBOL voltage -160 80 R0
WINDOW 3 24 96 Left 0
WINDOW 123 0 0 Left 0
WINDOW 39 0 0 Left 0
SYMATTR Value PULSE(0 5 0 10m 10m 100m 200m)
SYMATTR InstName V1
SYMBOL voltage -96 176 R0
WINDOW 3 24 96 Left 0
WINDOW 123 0 0 Left 0
WINDOW 39 0 0 Left 0
SYMATTR Value PULSE(0 5 0 10m 10m 200m 400m)
SYMATTR InstName V2
SYMBOL voltage 0 208 R0
WINDOW 3 24 96 Left 0
WINDOW 123 0 0 Left 0
WINDOW 39 0 0 Left 0
SYMATTR Value PULSE(0 5 0 10m 10m 400m 800m)
SYMATTR InstName V3
SYMBOL voltage 384 256 R0
WINDOW 123 0 0 Left 0
WINDOW 39 0 0 Left 0
SYMATTR InstName V4
SYMATTR Value 5
TEXT -194 392 Left 2 !.tran 2
