Version 4
SHEET 1 2172 760
WIRE -240 64 -624 64
WIRE -176 64 -176 32
WIRE -48 64 -176 64
WIRE -240 96 -240 64
WIRE -48 96 -240 96
WIRE -352 112 -384 112
WIRE 176 112 176 64
WIRE 176 112 112 112
WIRE -48 128 -128 128
WIRE -624 144 -624 64
WIRE -624 144 -656 144
WIRE -592 144 -624 144
WIRE -128 144 -128 128
WIRE -128 144 -384 144
WIRE 160 144 112 144
WIRE -48 160 -192 160
WIRE -352 176 -384 176
WIRE -192 176 -192 160
WIRE 512 176 112 176
WIRE 736 176 704 176
WIRE -48 192 -112 192
WIRE 512 208 480 208
WIRE 896 208 704 208
WIRE -48 224 -64 224
WIRE 512 240 480 240
WIRE 736 240 704 240
WIRE 1680 240 976 240
WIRE 1936 240 1872 240
WIRE 1680 272 1472 272
WIRE 2096 272 1872 272
WIRE -112 288 -112 192
WIRE -112 288 -192 288
WIRE 1680 304 1632 304
WIRE 1936 304 1872 304
WIRE -64 320 -64 224
WIRE -64 320 -128 320
WIRE 896 320 896 208
WIRE 896 320 432 320
WIRE 1632 320 1632 304
WIRE 1632 320 1616 320
WIRE 1472 400 1472 272
WIRE 1600 400 1472 400
WIRE 1056 416 848 416
WIRE 1056 464 1056 416
WIRE 1248 464 1056 464
WIRE 1248 496 1024 496
WIRE 864 512 848 512
WIRE 1472 512 1472 496
WIRE 1472 512 1408 512
WIRE 704 528 528 528
WIRE 1248 528 1056 528
WIRE 864 544 848 544
WIRE 1472 544 1408 544
WIRE 704 560 544 560
WIRE 1248 560 1168 560
WIRE 432 576 432 320
WIRE 544 576 544 560
WIRE 544 576 432 576
WIRE 1168 576 1168 560
WIRE 1168 576 848 576
WIRE 1600 576 1600 400
WIRE 1600 576 1408 576
WIRE 704 592 560 592
WIRE 1248 592 1168 592
WIRE 976 608 976 240
WIRE 976 608 848 608
WIRE 560 624 560 592
WIRE 560 624 528 624
WIRE 1248 624 1232 624
WIRE 864 640 848 640
WIRE 1168 640 1168 592
WIRE 1168 640 1120 640
WIRE 1024 672 1024 496
WIRE 1024 672 848 672
WIRE 1232 688 1232 624
WIRE 1232 688 1200 688
WIRE 1056 704 1056 528
WIRE 1056 704 848 704
FLAG 1472 544 Vdc
IOPIN 1472 544 BiDir
FLAG 1936 304 Vdc
IOPIN 1936 304 BiDir
FLAG 160 144 Vdc
IOPIN 160 144 BiDir
FLAG -176 32 Vdc
IOPIN -176 32 BiDir
FLAG 1472 496 gnd
IOPIN 1472 496 BiDir
FLAG 1936 240 gnd
IOPIN 1936 240 BiDir
FLAG 176 64 gnd
IOPIN 176 64 BiDir
FLAG -192 176 gnd
IOPIN -192 176 BiDir
FLAG -352 112 gnd
IOPIN -352 112 BiDir
FLAG -352 176 Vdc
IOPIN -352 176 BiDir
FLAG -656 144 B
IOPIN -656 144 In
FLAG -128 320 S1
IOPIN -128 320 In
FLAG -192 288 S0
IOPIN -192 288 In
FLAG 528 528 A
IOPIN 528 528 In
FLAG 1120 640 S0
IOPIN 1120 640 In
FLAG 1200 688 S1
IOPIN 1200 688 In
FLAG 1616 320 S2
IOPIN 1616 320 In
FLAG 2096 272 G
IOPIN 2096 272 Out
FLAG 480 208 B
IOPIN 480 208 In
FLAG 480 240 S2
IOPIN 480 240 In
FLAG 736 176 gnd
IOPIN 736 176 BiDir
FLAG 736 240 Vdc
IOPIN 736 240 BiDir
FLAG 528 624 C
IOPIN 528 624 In
FLAG 864 544 gnd
IOPIN 864 544 BiDir
FLAG 864 640 Vdc
IOPIN 864 640 BiDir
FLAG 864 512 Cout
IOPIN 864 512 Out
SYMBOL 4X1_MUX 32 144 R0
SYMATTR InstName X1
SYMBOL 4X1_MUX 1328 544 R0
SYMATTR InstName X4
SYMBOL 2X1_MUX 1776 272 R0
SYMATTR InstName X5
SYMBOL not -496 144 R0
SYMATTR InstName X6
SYMBOL 2X1_MUX 608 208 R0
SYMATTR InstName X2
SYMBOL lp_full_adder 768 560 R0
SYMATTR InstName X3
