Version 4
SHEET 1 880 680
WIRE 112 0 64 0
WIRE 0 32 -32 32
WIRE -80 80 -128 80
WIRE 64 96 64 80
WIRE 112 96 112 0
WIRE 128 96 112 96
WIRE -32 128 -32 112
WIRE 0 128 0 32
WIRE 128 128 0 128
WIRE 384 128 256 128
WIRE -80 160 -80 80
WIRE 128 160 -80 160
WIRE 384 160 256 160
WIRE -128 176 -128 160
WIRE 128 192 -144 192
WIRE 368 192 256 192
WIRE 368 208 368 192
WIRE 128 224 -48 224
WIRE 304 224 256 224
WIRE 128 256 64 256
WIRE -144 288 -144 272
WIRE -48 320 -48 304
WIRE 304 320 304 304
WIRE 64 352 64 336
FLAG 368 208 0
FLAG 64 96 0
FLAG -32 128 0
FLAG 304 320 0
FLAG 64 352 0
FLAG -48 320 0
FLAG -144 288 0
FLAG -128 176 0
SYMBOL voltage 304 208 R0
WINDOW 123 0 0 Left 0
WINDOW 39 0 0 Left 0
SYMATTR InstName V1
SYMATTR Value 5
SYMBOL voltage 64 240 R0
WINDOW 3 24 96 Left 0
WINDOW 123 0 0 Left 0
WINDOW 39 0 0 Left 0
SYMATTR Value PULSE(0 0 0 10m 10m 400m 800m)
SYMATTR InstName V2
SYMBOL voltage -48 208 R0
WINDOW 3 24 96 Left 0
WINDOW 123 0 0 Left 0
WINDOW 39 0 0 Left 0
SYMATTR Value PULSE(0 0 0 10m 10m 200m 400m)
SYMATTR InstName V3
SYMBOL voltage 64 -16 R0
WINDOW 3 24 96 Left 0
WINDOW 123 0 0 Left 0
WINDOW 39 0 0 Left 0
SYMATTR Value PULSE(0 5 0 10m 10m 100m 200m)
SYMATTR InstName V5
SYMBOL voltage -32 16 R0
WINDOW 3 24 96 Left 0
WINDOW 123 0 0 Left 0
WINDOW 39 0 0 Left 0
SYMATTR Value PULSE(0 0 0 0 0 200m 400m)
SYMATTR InstName V6
SYMBOL voltage -128 64 R0
WINDOW 3 24 96 Left 0
WINDOW 123 0 0 Left 0
WINDOW 39 0 0 Left 0
SYMATTR Value PULSE(0 0 0 0 0 400m 800m)
SYMATTR InstName V7
SYMBOL voltage -144 176 R0
WINDOW 3 24 96 Left 0
WINDOW 123 0 0 Left 0
WINDOW 39 0 0 Left 0
SYMATTR Value PULSE(0 0 0 10m 10m 100m 200m)
SYMATTR InstName V4
SYMBOL lp_onebit_alu 192 176 R0
SYMATTR InstName X1
TEXT -176 376 Left 2 !.tran 2
