Version 4
SHEET 1 880 680
WIRE -368 -160 -400 -160
WIRE -256 -160 -288 -160
WIRE -224 -160 -256 -160
WIRE -512 -128 -512 -160
WIRE -256 -128 -288 -128
WIRE -224 -128 -256 -128
WIRE -512 -112 -512 -128
WIRE -368 -112 -368 -160
WIRE -368 -96 -368 -112
WIRE -256 -96 -288 -96
WIRE -224 -96 -256 -96
WIRE 0 -80 -96 -80
WIRE -256 -64 -288 -64
WIRE -224 -64 -256 -64
WIRE 0 -48 -96 -48
WIRE -368 -32 -400 -32
WIRE -256 -32 -288 -32
WIRE -224 -32 -256 -32
WIRE -688 -16 -720 -16
WIRE -64 -16 -96 -16
WIRE 48 -16 -64 -16
WIRE -512 0 -512 -32
WIRE -256 0 -288 0
WIRE -224 0 -256 0
WIRE -512 16 -512 0
WIRE -368 16 -368 -32
WIRE 0 16 -96 16
WIRE -688 32 -688 -16
WIRE -256 32 -288 32
WIRE -224 32 -256 32
WIRE -368 48 -368 16
WIRE 0 48 -96 48
WIRE -256 64 -288 64
WIRE -224 64 -256 64
WIRE -512 96 -528 96
WIRE -368 96 -400 96
WIRE -256 96 -288 96
WIRE -224 96 -256 96
WIRE -512 112 -512 96
WIRE -64 112 -96 112
WIRE -512 128 -512 112
WIRE -256 128 -288 128
WIRE -224 128 -256 128
WIRE -64 144 -64 112
WIRE -48 144 -64 144
WIRE -368 160 -368 96
WIRE -256 160 -288 160
WIRE -224 160 -256 160
WIRE -368 176 -368 160
WIRE -256 192 -288 192
WIRE -224 192 -256 192
WIRE -496 240 -512 240
WIRE -368 240 -384 240
WIRE -368 272 -368 240
WIRE -496 288 -496 240
WIRE -368 288 -368 272
WIRE -192 288 -208 288
WIRE -176 288 -192 288
WIRE -496 320 -496 288
WIRE -192 416 -224 416
WIRE -176 416 -192 416
WIRE -208 544 -384 544
WIRE -176 544 -208 544
FLAG -96 80 0
FLAG 32 144 0
FLAG -592 -160 0
FLAG -592 -32 0
FLAG -608 96 0
FLAG -592 240 0
FLAG -480 96 0
FLAG -480 -32 0
FLAG -480 -160 0
FLAG -464 240 0
FLAG -288 288 0
FLAG -304 416 0
FLAG -256 128 S0
FLAG -192 288 S0
FLAG -256 160 S1
FLAG -256 192 S2
FLAG -192 416 S1
FLAG -208 544 S2
FLAG -256 -160 A0
FLAG -256 -32 B0
FLAG -512 -128 A0
FLAG -368 -112 B0
FLAG -256 -128 A1
FLAG -256 -96 A2
FLAG -256 -64 A3
FLAG -256 0 B1
FLAG -256 32 B2
FLAG -256 64 B3
FLAG -256 96 C0
FLAG -800 -16 0
FLAG -720 -16 C0
FLAG -512 0 A1
FLAG -512 112 A2
FLAG -496 288 A3
FLAG -368 16 B1
FLAG -368 160 B2
FLAG -368 272 B3
FLAG -64 -16 G1
FLAG -464 544 0
FLAG 48 48 0
SYMBOL voltage -64 144 R270
WINDOW 0 32 56 VTop 2
WINDOW 3 -32 56 VBottom 2
WINDOW 123 0 0 Left 2
WINDOW 39 0 0 Left 2
SYMATTR InstName V1
SYMATTR Value 5
SYMBOL voltage -496 -160 R90
WINDOW 0 -32 56 VBottom 2
WINDOW 3 32 56 VTop 2
WINDOW 123 0 0 Left 2
WINDOW 39 0 0 Left 2
SYMATTR InstName V2
SYMATTR Value 0
SYMBOL voltage -496 -32 R90
WINDOW 0 -32 56 VBottom 2
WINDOW 3 32 56 VTop 2
WINDOW 123 0 0 Left 2
WINDOW 39 0 0 Left 2
SYMATTR InstName V3
SYMATTR Value 0
SYMBOL voltage -512 96 R90
WINDOW 0 -32 56 VBottom 2
WINDOW 3 32 56 VTop 2
WINDOW 123 0 0 Left 2
WINDOW 39 0 0 Left 2
SYMATTR InstName V4
SYMATTR Value 0
SYMBOL voltage -496 240 R90
WINDOW 0 -32 56 VBottom 2
WINDOW 3 32 56 VTop 2
WINDOW 123 0 0 Left 2
WINDOW 39 0 0 Left 2
SYMATTR InstName V5
SYMATTR Value 0
SYMBOL voltage -368 240 R90
WINDOW 0 -32 56 VBottom 2
WINDOW 3 32 56 VTop 2
WINDOW 123 0 0 Left 2
WINDOW 39 0 0 Left 2
SYMATTR InstName V6
SYMATTR Value 0
SYMBOL voltage -384 96 R90
WINDOW 0 -32 56 VBottom 2
WINDOW 3 32 56 VTop 2
WINDOW 123 0 0 Left 2
WINDOW 39 0 0 Left 2
SYMATTR InstName V7
SYMATTR Value 0
SYMBOL voltage -384 -32 R90
WINDOW 0 -32 56 VBottom 2
WINDOW 3 32 56 VTop 2
WINDOW 123 0 0 Left 2
WINDOW 39 0 0 Left 2
SYMATTR InstName V8
SYMATTR Value 0
SYMBOL voltage -384 -160 R90
WINDOW 0 -32 56 VBottom 2
WINDOW 3 32 56 VTop 2
WINDOW 123 0 0 Left 2
WINDOW 39 0 0 Left 2
SYMATTR InstName V9
SYMATTR Value 0
SYMBOL voltage -192 288 R90
WINDOW 0 -32 56 VBottom 2
WINDOW 3 32 56 VTop 2
WINDOW 123 0 0 Left 2
WINDOW 39 0 0 Left 2
SYMATTR InstName V10
SYMATTR Value PULSE(0 1.8 0 0 0 0.5m 1m 10)
SYMBOL voltage -208 416 R90
WINDOW 0 -32 56 VBottom 2
WINDOW 3 32 56 VTop 2
WINDOW 123 0 0 Left 2
WINDOW 39 0 0 Left 2
SYMATTR InstName V11
SYMATTR Value PULSE(0 1.8 0 0 0 1m 2m 10)
SYMBOL voltage -704 -16 R90
WINDOW 0 -32 56 VBottom 2
WINDOW 3 32 56 VTop 2
WINDOW 123 0 0 Left 2
WINDOW 39 0 0 Left 2
SYMATTR InstName V12
SYMATTR Value 0
SYMBOL voltage -368 544 R90
WINDOW 0 -32 56 VBottom 2
WINDOW 3 32 56 VTop 2
WINDOW 123 0 0 Left 2
WINDOW 39 0 0 Left 2
SYMATTR InstName V13
SYMATTR Value PULSE(0 1.8 0 0 0 2m 4m 10)
SYMBOL lp_four_bit_alu -160 16 R0
SYMATTR InstName X1
SYMBOL cap 32 -16 R0
SYMATTR InstName C1
SYMATTR Value 1f
TEXT -824 352 Left 2 !.tran 8m
